[General]
image-path = "/home/grawp/Avis/simulator/tawns1/images;/home/grawp/Downloads/omnetpp-6.0.1-linux-x86_64/omnetpp-6.0.1/images"

network = Network 

# misc
**.wlan[*].bitrate = 24Mbps
*.configurator.addStaticRoutes = false
**.netmaskRoutes = ""
**.arp.typename = "GlobalArp"
# tx power and routing protocol
**.transmitter.power = 2mW
*.*.routing.typename = "Dsdv"
*.*.routing.helloInterval = 1s
*.*.routing.routeLifetime = 2s

# constraint area
**.constraintAreaMinX = 0m
**.constraintAreaMinY = 0m
**.constraintAreaMinZ = 0m
**.constraintAreaMaxX = 1500m
**.constraintAreaMaxY = 800m
**.constraintAreaMaxZ = 100m

[Config GenerateAcousticData]
description = "Nodes in straight line from source, distance from 5 meters to 60 meters (step 5 meters)"
sim-time-limit=10s # simulation time sets the duration of your generated audio data
num-rngs = 1 # use only one random number generator
seed-set = 12  # set a seed for reproducibility
*.numHosts=12 # define number of nodes
*.numSources=1 # define number of sources

# set mobility model for sources
**.source[*].mobility.typename = AStationaryMobility  # ALL sources  use the AStationaryModel
**.source[0].mobility.initialX = 100m # only source[0] is placed at specific coordinates (other sound
**.source[0].mobility.initialY = 500m
**.source[0].mobility.initialZ = 1m

# set mobility model for nodes
**.node[*].mobility.typename = AStationaryMobility # ALL nodes  use the AStationaryModel
**.node[*].mobility.initialX = replaceUnit(105 + 5 * parentIndex(), "m")
**.node[*].mobility.initialY = 500m
**.node[*].mobility.initialZ = 1m

# more configuration of node
**.node[0].numMicrophones = 4
**.node[*].numMicrophones = 1 # equip each node with a specific number of microphones, default 1, 
**.node[*].directory = "./data/soundscapes" # assign directory where audios are saved, name of the node is appended automatically
**.node[*].microphones[*].filename = fullName() # assign the name of audio, fullname() refers the name of module which is microphone[*] in this case
**.node[0].microphones[0].mobility.offsetX = -0.2m # microphones are placed relatv to the original position
**.node[0].microphones[1].mobility.offsetX = -0.1m
**.node[0].microphones[2].mobility.offsetX = 0m
**.node[0].microphones[3].mobility.offsetX = 0.1m

# configuration of Soundsource 
**.source[*].species = "unspecified"
**.source[*].audio.label = "bird" # simply the name
**.source[*].audio.absPath = "../.././audioLibrary/foreground/birds/Parus_major/XC694890-01.wav" # assign path where audio exists
**.source[*].audio.sourceTime = 0.0 # time at which the audio starts
**.source[*].audio.maxSamples = 1 # set the number of times this bird emits a sound during the simulation time

# configuration of ambient
**.ambient.audio.label = "pasture" # must be name of audio's dir, in this case pasture
**.ambient.audio.absPath = "../.././audioLibrary/background/misc/silence/silence_30s.wav"
**.ambient.audio.sourceTime = 0.0 # time at which the audio starts



